[General]
network = Network
sim-time-limit = 200s

Network.nodeTx.gen.packetByteSize = 12500
Network.nodeTx.serviceTime = exponential(0.001)
Network.nodeTx.gen.generationInterval = exponential(0.1)
Network.nodeTx.transportTx.bufferSize = 2000000

Network.queue.bufferSize = 200
Network.queue.serviceTime=exponential(0.001)

Network.queue1.bufferSize = 200
Network.queue1.serviceTime = exponential(0.001)

Network.queue2.bufferSize = 200
Network.queue2.serviceTime = exponential(0.001)

Network.nodeRx.transportRx.bufferSize = 200
Network.nodeRx.serviceTime = exponential(0.001)

